Version 4
SHEET 1 880 680
WIRE 256 -256 -48 -256
WIRE 672 -256 400 -256
WIRE 672 -80 672 -256
WIRE 672 -80 -224 -80
WIRE -224 16 -224 -80
WIRE -192 16 -224 16
WIRE 256 16 -48 16
WIRE 528 16 400 16
FLAG 528 16 Vout
IOPIN 528 16 Out
FLAG -192 112 0
FLAG -192 -160 0
FLAG 256 -160 0
FLAG 256 112 0
FLAG -192 -256 Vin
IOPIN -192 -256 In
FLAG -48 -208 Vcc
IOPIN -48 -208 BiDir
FLAG -48 -160 Vee
IOPIN -48 -160 BiDir
FLAG 400 -208 Vcc
IOPIN 400 -208 BiDir
FLAG 400 -160 Vee
IOPIN 400 -160 BiDir
FLAG -48 64 Vcc
IOPIN -48 64 BiDir
FLAG -48 112 Vee
IOPIN -48 112 BiDir
FLAG 400 64 Vcc
IOPIN 400 64 BiDir
FLAG 400 112 Vee
IOPIN 400 112 BiDir
SYMBOL low-pass-rauch-block1 -128 -208 R0
SYMATTR InstName X1
SYMBOL low-pass-rauch-block2 320 -208 R0
SYMATTR InstName X2
SYMBOL low-pass-rauch-block3 -128 64 R0
SYMATTR InstName X3
SYMBOL low-pass-rauch-block4 320 64 R0
SYMATTR InstName X4
