Version 4
SHEET 1 944 680
WIRE -32 64 -80 64
WIRE 240 64 112 64
WIRE 480 64 384 64
WIRE 704 64 640 64
WIRE 896 64 848 64
WIRE 480 96 448 96
WIRE 240 128 224 128
WIRE -80 224 -80 64
WIRE 224 272 224 128
WIRE 224 272 192 272
WIRE 448 272 448 96
WIRE 448 272 224 272
FLAG 560 400 0
FLAG 672 400 0
FLAG 560 320 +Vcc
FLAG 112 96 +Vcc
FLAG 384 96 +Vcc
FLAG 848 96 +Vcc
FLAG 672 320 -Vcc
FLAG 112 128 -Vcc
FLAG 384 128 -Vcc
FLAG 848 128 -Vcc
FLAG 896 64 Vo
FLAG -80 64 Vi
FLAG -80 304 0
FLAG 192 304 +Vcc
SYMBOL LPRauch 32 96 R0
SYMATTR InstName FAA
SYMBOL LPRauch 768 96 R0
SYMATTR InstName FR
SYMBOL sh 304 96 R0
SYMATTR InstName S_H
SYMBOL analog-switch 560 80 R0
SYMATTR InstName A_S
SYMBOL voltage 560 304 R0
WINDOW 123 0 0 Left 0
WINDOW 39 0 0 Left 0
SYMATTR InstName V1
SYMATTR Value +15
SYMBOL voltage 672 304 R0
WINDOW 123 0 0 Left 0
WINDOW 39 0 0 Left 0
SYMATTR InstName V2
SYMATTR Value -15
SYMBOL voltage -80 208 R0
WINDOW 3 24 44 Invisible 2
WINDOW 123 0 0 Left 0
WINDOW 39 0 0 Left 0
SYMATTR InstName V3
SYMATTR Value SINE(0 5 10k 0 0 0 1k)
SYMBOL oscilador_exp 144 288 R0
SYMATTR InstName Osc
TEXT -114 424 Left 2 !.tran 0 0.1m 0
