Version 4
SHEET 1 1172 680
WIRE -16 -80 -288 -80
WIRE 240 -80 128 -80
WIRE 560 -64 480 -64
WIRE 832 -64 704 -64
WIRE 832 96 832 -64
WIRE 832 96 816 96
WIRE 848 96 832 96
WIRE 240 112 240 -80
WIRE 272 112 240 112
WIRE 480 112 480 -64
WIRE 480 112 432 112
WIRE 272 144 224 144
WIRE -288 192 -288 -80
WIRE 224 336 224 144
FLAG 928 336 vcc
FLAG 1104 352 -vcc
FLAG 928 416 0
FLAG 1104 432 0
FLAG 224 416 0
FLAG -288 272 0
FLAG 848 96 out
FLAG 128 -16 -vcc
FLAG 128 -48 vcc
FLAG 704 -32 vcc
FLAG 704 0 -vcc
SYMBOL voltage 928 320 R0
WINDOW 123 0 0 Left 0
WINDOW 39 0 0 Left 0
SYMATTR InstName V1
SYMATTR Value 15
SYMBOL voltage 1104 336 R0
WINDOW 123 0 0 Left 0
WINDOW 39 0 0 Left 0
SYMATTR InstName V2
SYMATTR Value -15
SYMBOL voltage 224 320 R0
WINDOW 123 0 0 Left 0
WINDOW 39 0 0 Left 0
SYMATTR InstName V3
SYMATTR Value PULSE(0 5 1n 1n 1n 6.67u 13.34u)
SYMBOL voltage -288 176 R0
WINDOW 123 0 0 Left 0
WINDOW 39 0 0 Left 0
SYMATTR InstName V4
SYMATTR Value SINE(0 1 2k 0 0 90)
SYMBOL analog-switch 352 128 R0
SYMATTR InstName X1
SYMBOL LPRauch 48 -48 R0
SYMATTR InstName X2
SYMBOL LPRauch 624 -32 R0
SYMATTR InstName X3
TEXT -32 408 Left 2 !.tran 0 2m 0
