Version 4
SHEET 1 880 680
WIRE -464 48 -640 48
WIRE -224 96 -288 96
WIRE -704 128 -704 112
WIRE -464 128 -464 48
WIRE -224 128 -464 128
WIRE -224 160 -336 160
WIRE 16 176 -32 176
WIRE -224 192 -336 192
FLAG -288 96 IN
IOPIN -288 96 In
FLAG 16 176 OUT
IOPIN 16 176 Out
FLAG -336 160 0
FLAG -400 192 0
FLAG 224 208 0
FLAG 352 208 0
FLAG 224 128 +vcc
FLAG -224 256 +vcc
FLAG 352 128 -vcc
FLAG -224 224 -vcc
FLAG -704 208 0
FLAG -704 112 IN
FLAG -640 128 0
SYMBOL lf398 -160 144 R0
SYMATTR InstName U1
SYMBOL cap -336 176 R90
WINDOW 0 0 32 VBottom 2
WINDOW 3 32 32 VTop 2
SYMATTR InstName C1
SYMATTR Value 1n
SYMBOL voltage 224 112 R0
WINDOW 123 0 0 Left 0
WINDOW 39 0 0 Left 0
SYMATTR InstName V1
SYMATTR Value +15
SYMBOL voltage 352 112 R0
WINDOW 123 0 0 Left 0
WINDOW 39 0 0 Left 0
SYMATTR InstName V2
SYMATTR Value -15
SYMBOL voltage -704 112 R0
WINDOW 123 0 0 Left 0
WINDOW 39 0 0 Left 0
SYMATTR InstName V3
SYMATTR Value SINE(0 5 5 0 0 0 1000)
SYMBOL voltage -640 32 R0
WINDOW 123 0 0 Left 0
WINDOW 39 0 0 Left 0
SYMATTR InstName V4
SYMATTR Value PULSE(0 5 0 1n 1n 0.3 1 5)
TEXT -374 278 Left 2 !.tran 0 5 0 1
TEXT -80 56 Left 2 !.include LF398.sub
