Version 4
SHEET 1 880 876
WIRE -208 192 -208 160
WIRE -208 304 -208 272
FLAG -208 304 0
FLAG -208 160 Vin
IOPIN -208 160 In
FLAG -288 464 0
FLAG -176 464 0
FLAG -288 384 +Vcc
FLAG -176 384 -Vcc
FLAG 128 80 Vin
IOPIN 128 80 In
FLAG 128 288 Vin
IOPIN 128 288 In
FLAG 128 496 Vin
IOPIN 128 496 In
FLAG 128 720 Vin
IOPIN 128 720 In
FLAG 272 128 +Vcc
FLAG 272 336 +Vcc
FLAG 272 544 +Vcc
FLAG 272 768 +Vcc
FLAG 272 176 -Vcc
FLAG 272 384 -Vcc
FLAG 272 592 -Vcc
FLAG 272 816 -Vcc
FLAG 272 80 Vo1
FLAG 272 288 Vo2
FLAG 272 496 Vo3
FLAG 272 720 Vo4
SYMBOL low-pass-rauch-block1 192 128 R0
SYMATTR InstName X1
SYMBOL low-pass-rauch-block2 192 336 R0
SYMATTR InstName X2
SYMBOL low-pass-rauch-block3 192 544 R0
SYMATTR InstName X3
SYMBOL low-pass-rauch-block4 192 768 R0
SYMATTR InstName X4
SYMBOL voltage -208 176 R0
WINDOW 123 24 124 Left 2
WINDOW 39 0 0 Left 0
SYMATTR Value2 AC 1
SYMATTR InstName V1
SYMATTR Value ""
SYMBOL voltage -288 368 R0
WINDOW 123 0 0 Left 0
WINDOW 39 0 0 Left 0
SYMATTR InstName V2
SYMATTR Value 15
SYMBOL voltage -176 368 R0
WINDOW 123 0 0 Left 0
WINDOW 39 0 0 Left 0
SYMATTR InstName V3
SYMATTR Value -15
TEXT -336 504 Left 2 !.ac dec 1000 10k 100k
