Version 4
SHEET 1 880 680
WIRE 112 -48 64 -48
WIRE -432 -32 -432 -64
WIRE -432 80 -432 48
FLAG -432 80 0
FLAG -432 -64 Vin
IOPIN -432 -64 In
FLAG 112 -48 Vout
IOPIN 112 -48 Out
FLAG -512 240 0
FLAG -400 240 0
FLAG -512 160 +Vcc
FLAG -400 160 -Vcc
FLAG -48 384 +Vcc
FLAG -48 192 +Vcc
FLAG -48 0 +Vcc
FLAG -48 -192 +Vcc
FLAG -48 -144 -Vcc
FLAG -48 48 -Vcc
FLAG -48 240 -Vcc
FLAG -48 432 -Vcc
FLAG -192 240 0
FLAG -192 -144 0
FLAG -192 48 0
FLAG -192 432 0
FLAG -48 -240 Stg1
FLAG -48 -48 Stg2
FLAG -48 144 Stg3
FLAG -48 336 Stg4
SYMBOL voltage -432 -48 R0
WINDOW 123 24 124 Left 2
WINDOW 39 0 0 Left 0
SYMATTR Value2 AC 1
SYMATTR InstName V1
SYMATTR Value ""
SYMBOL low-pass-rauch-block1 -128 -192 R0
SYMATTR InstName X1
SYMBOL voltage -512 144 R0
WINDOW 123 0 0 Left 0
WINDOW 39 0 0 Left 0
SYMATTR InstName V2
SYMATTR Value 15
SYMBOL voltage -400 144 R0
WINDOW 123 0 0 Left 0
WINDOW 39 0 0 Left 0
SYMATTR InstName V3
SYMATTR Value -15
SYMBOL low-pass-rauch-block2 -128 0 R0
SYMATTR InstName X2
SYMBOL low-pass-rauch-block3 -128 192 R0
SYMATTR InstName X3
SYMBOL low-pass-rauch-block4 -128 384 R0
SYMATTR InstName X4
TEXT -560 280 Left 2 !.ac dec 100 10k 100k
