Version 4
SHEET 1 880 680
WIRE 256 -256 -48 -256
WIRE 672 -256 400 -256
WIRE 672 -80 672 -256
WIRE 672 -80 -224 -80
WIRE -432 -32 -432 -64
WIRE -224 16 -224 -80
WIRE -192 16 -224 16
WIRE 256 16 -48 16
WIRE 528 16 400 16
WIRE -432 80 -432 48
FLAG -432 80 0
FLAG -432 -64 Vin
IOPIN -432 -64 In
FLAG 528 16 Vout
IOPIN 528 16 Out
FLAG -512 240 0
FLAG -400 240 0
FLAG -512 160 +Vcc
FLAG -400 160 -Vcc
FLAG 400 64 +Vcc
FLAG -48 64 +Vcc
FLAG 400 -208 +Vcc
FLAG -48 -208 +Vcc
FLAG -48 -160 -Vcc
FLAG 400 -160 -Vcc
FLAG -48 112 -Vcc
FLAG 400 112 -Vcc
FLAG -192 112 0
FLAG -192 -160 0
FLAG 256 -160 0
FLAG 256 112 0
FLAG -192 -256 Vin
IOPIN -192 -256 In
SYMBOL voltage -432 -48 R0
WINDOW 123 24 124 Left 2
WINDOW 39 0 0 Left 0
SYMATTR Value2 AC 1
SYMATTR InstName V1
SYMATTR Value ""
SYMBOL low-pass-rauch-block1 -128 -208 R0
SYMATTR InstName X1
SYMBOL voltage -512 144 R0
WINDOW 123 0 0 Left 0
WINDOW 39 0 0 Left 0
SYMATTR InstName V2
SYMATTR Value 15
SYMBOL voltage -400 144 R0
WINDOW 123 0 0 Left 0
WINDOW 39 0 0 Left 0
SYMATTR InstName V3
SYMATTR Value -15
SYMBOL low-pass-rauch-block2 320 -208 R0
SYMATTR InstName X2
SYMBOL low-pass-rauch-block3 -128 64 R0
SYMATTR InstName X3
SYMBOL low-pass-rauch-block4 320 64 R0
SYMATTR InstName X4
TEXT -560 280 Left 2 !.ac dec 100 10k 100k
