Version 4
SHEET 1 880 680
WIRE -272 -64 -432 -64
WIRE -16 -64 -128 -64
WIRE 208 -64 128 -64
WIRE -432 -32 -432 -64
WIRE -432 80 -432 48
WIRE 208 80 208 -64
WIRE 208 80 -288 80
WIRE -288 144 -288 80
WIRE -272 144 -288 144
WIRE -16 144 -128 144
WIRE 176 144 128 144
FLAG -432 80 0
FLAG -432 -64 Vin
IOPIN -432 -64 In
FLAG 176 144 Vout
IOPIN 176 144 Out
FLAG -512 240 0
FLAG -400 240 0
FLAG -512 160 +Vcc
FLAG -400 160 -Vcc
FLAG 128 192 +Vcc
FLAG -128 192 +Vcc
FLAG 128 -16 +Vcc
FLAG -128 -16 +Vcc
FLAG -128 32 -Vcc
FLAG 128 32 -Vcc
FLAG -128 240 -Vcc
FLAG 128 240 -Vcc
FLAG -272 240 0
FLAG -272 32 0
FLAG -16 32 0
FLAG -16 240 0
SYMBOL voltage -432 -48 R0
WINDOW 123 24 124 Left 2
WINDOW 39 0 0 Left 0
SYMATTR Value2 AC 1
SYMATTR InstName V1
SYMATTR Value ""
SYMBOL low-pass-rauch-block1 -208 -16 R0
SYMATTR InstName X1
SYMBOL voltage -512 144 R0
WINDOW 123 0 0 Left 0
WINDOW 39 0 0 Left 0
SYMATTR InstName V2
SYMATTR Value 15
SYMBOL voltage -400 144 R0
WINDOW 123 0 0 Left 0
WINDOW 39 0 0 Left 0
SYMATTR InstName V3
SYMATTR Value -15
SYMBOL low-pass-rauch-block2 48 -16 R0
SYMATTR InstName X2
SYMBOL low-pass-rauch-block3 -208 192 R0
SYMATTR InstName X3
SYMBOL low-pass-rauch-block4 48 192 R0
SYMATTR InstName X4
TEXT -560 280 Left 2 !.ac dec 100 10k 100k
