Version 4
SHEET 1 880 680
WIRE 96 16 64 16
WIRE 192 16 176 16
WIRE 400 16 192 16
WIRE 192 48 192 16
WIRE -48 160 -80 160
WIRE 96 160 32 160
WIRE 192 160 192 112
WIRE 192 160 176 160
WIRE 272 160 192 160
WIRE 400 176 400 16
WIRE 400 176 336 176
WIRE 432 176 400 176
WIRE -80 192 -80 160
WIRE 64 192 64 16
WIRE 272 192 192 192
WIRE 192 224 192 192
WIRE -80 288 -80 272
WIRE 64 288 64 256
FLAG -80 288 0
FLAG 64 288 0
FLAG 192 224 0
FLAG 432 176 Vout
IOPIN 432 176 Out
FLAG -80 160 Vin
IOPIN -80 160 In
SYMBOL res 48 144 R90
WINDOW 0 0 56 VBottom 2
WINDOW 3 32 56 VTop 2
SYMATTR InstName R1
SYMATTR Value 1.1k
SYMBOL res 80 176 R270
WINDOW 0 32 56 VTop 2
WINDOW 3 0 56 VBottom 2
SYMATTR InstName R2
SYMATTR Value 2.05k
SYMBOL res 192 0 R90
WINDOW 0 0 56 VBottom 2
WINDOW 3 32 56 VTop 2
SYMATTR InstName R3
SYMATTR Value 1.1k
SYMBOL cap 48 192 R0
SYMATTR InstName C1
SYMATTR Value 43n
SYMBOL cap 176 48 R0
SYMATTR InstName C2
SYMATTR Value 100p
SYMBOL voltage -80 176 R0
WINDOW 123 24 72 Left 2
WINDOW 39 0 0 Left 0
WINDOW 3 24 44 Invisible 2
SYMATTR Value2 AC 1
SYMATTR InstName V1
SYMATTR Value 0
SYMBOL Opamps\\opamp 304 112 R0
SYMATTR InstName U1
TEXT 408 248 Left 2 !.ac dec 10 1 100k
TEXT 408 288 Left 2 !.lib opamp.sub
