Version 4
SHEET 1 880 680
WIRE -368 144 -432 144
WIRE -192 144 -224 144
WIRE -16 144 -48 144
WIRE 160 144 128 144
WIRE 352 144 304 144
WIRE -432 192 -432 144
WIRE -432 320 -432 272
FLAG -432 320 0
FLAG -432 144 Vin
IOPIN -432 144 In
FLAG 352 144 Vout
IOPIN 352 144 Out
SYMBOL voltage -432 176 R0
WINDOW 123 24 124 Left 2
WINDOW 39 0 0 Left 0
SYMATTR Value2 AC 1
SYMATTR InstName V1
SYMATTR Value ""
SYMBOL LPRauch1 -304 144 R0
SYMATTR InstName X1
SYMBOL LPRauch2 -128 144 R0
SYMATTR InstName X2
SYMBOL LPRauch3 48 144 R0
SYMATTR InstName X3
SYMBOL LPRauch4 224 144 R0
SYMATTR InstName X4
TEXT 128 248 Left 2 !.ac dec 100 10k 100k
