Version 4
SHEET 1 880 680
WIRE -448 64 -528 64
WIRE -528 96 -528 64
WIRE -528 192 -528 176
WIRE -192 304 -304 304
WIRE -192 320 -192 304
FLAG -528 192 0
FLAG -528 64 Zin
FLAG -448 160 0
FLAG -176 -32 0
FLAG -64 -32 0
FLAG -176 -112 +vcc
FLAG -304 112 +vcc
FLAG -64 -112 -vcc
FLAG -304 160 -vcc
FLAG -16 464 0
FLAG 272 464 0
FLAG 272 208 0
FLAG -16 208 0
FLAG -304 64 Vout
FLAG -448 400 0
FLAG -304 352 +vcc
FLAG -304 400 -vcc
FLAG -192 400 0
FLAG -192 304 Zout
SYMBOL low-pass-rauch-block1 48 160 R0
SYMATTR InstName X1
SYMBOL low-pass-rauch-block2 336 160 R0
SYMATTR InstName X2
SYMBOL low-pass-rauch-block3 48 416 R0
SYMATTR InstName X3
SYMBOL low-pass-rauch-block4 336 416 R0
SYMATTR InstName X4
SYMBOL current -528 176 R180
WINDOW 0 24 80 Left 2
WINDOW 3 24 0 Left 2
WINDOW 123 24 -28 Left 2
WINDOW 39 0 0 Left 0
SYMATTR InstName I1
SYMATTR Value ""
SYMATTR Value2 AC 1
SYMBOL voltage -176 -128 R0
WINDOW 123 0 0 Left 0
WINDOW 39 0 0 Left 0
SYMATTR InstName V1
SYMATTR Value +15
SYMBOL voltage -64 -128 R0
WINDOW 123 0 0 Left 0
WINDOW 39 0 0 Left 0
SYMATTR InstName V2
SYMATTR Value -15
SYMBOL low-pass-rauch-block1 -384 112 R0
SYMATTR InstName X5
SYMBOL current -192 400 R180
WINDOW 0 24 80 Left 2
WINDOW 3 24 0 Left 2
WINDOW 123 24 -28 Left 2
WINDOW 39 0 0 Left 0
SYMATTR InstName I2
SYMATTR Value ""
SYMATTR Value2 AC 1
SYMBOL low-pass-rauch-block1 -384 352 R0
SYMATTR InstName X6
TEXT -222 14 Left 2 !.ac dec 100 1k 1Meg
TEXT 8 248 Left 2 ;Q = 6.04\nf = 51.05k
TEXT 296 248 Left 2 ;Q = 1.84\nf = 44.37k
TEXT 8 504 Left 2 ;Q = 0.91\nf = 33.69k
TEXT 296 504 Left 2 ;Q = 0.54\nf = 24.40k
