Version 4
SHEET 1 2276 680
WIRE -144 -64 -320 -64
WIRE 160 -64 -144 -64
WIRE 496 -64 320 -64
WIRE 800 -64 496 -64
WIRE 1136 -64 960 -64
WIRE 1440 -64 1136 -64
WIRE 1776 -64 1600 -64
WIRE 2080 -64 1776 -64
WIRE -320 -16 -320 -64
WIRE 320 -16 320 -64
WIRE 960 -16 960 -64
WIRE 1600 -16 1600 -64
WIRE -144 0 -144 -64
WIRE 496 0 496 -64
WIRE 1136 0 1136 -64
WIRE 1776 0 1776 -64
WIRE -32 80 -32 32
WIRE 16 80 -32 80
WIRE 608 80 608 32
WIRE 656 80 608 80
WIRE 1248 80 1248 32
WIRE 1296 80 1248 80
WIRE 1888 80 1888 32
WIRE 1936 80 1888 80
WIRE -448 112 -528 112
WIRE -320 112 -320 64
WIRE -320 112 -368 112
WIRE -272 112 -320 112
WIRE -144 112 -144 64
WIRE -144 112 -192 112
WIRE 16 112 -144 112
WIRE 160 112 160 -64
WIRE 192 112 160 112
WIRE 320 112 320 64
WIRE 320 112 272 112
WIRE 368 112 320 112
WIRE 496 112 496 64
WIRE 496 112 448 112
WIRE 656 112 496 112
WIRE 800 112 800 -64
WIRE 832 112 800 112
WIRE 960 112 960 64
WIRE 960 112 912 112
WIRE 1008 112 960 112
WIRE 1136 112 1136 64
WIRE 1136 112 1088 112
WIRE 1296 112 1136 112
WIRE 1440 112 1440 -64
WIRE 1472 112 1440 112
WIRE 1600 112 1600 64
WIRE 1600 112 1552 112
WIRE 1648 112 1600 112
WIRE 1776 112 1776 64
WIRE 1776 112 1728 112
WIRE 1936 112 1776 112
WIRE 2080 112 2080 -64
WIRE 2128 112 2080 112
WIRE 160 128 160 112
WIRE 160 128 80 128
WIRE 800 128 800 112
WIRE 800 128 720 128
WIRE 1440 128 1440 112
WIRE 1440 128 1360 128
WIRE 2080 128 2080 112
WIRE 2080 128 2000 128
WIRE -528 144 -528 112
WIRE -320 160 -320 112
WIRE 320 160 320 112
WIRE 960 160 960 112
WIRE 1600 160 1600 112
WIRE -528 288 -528 224
WIRE -320 288 -320 224
WIRE -160 288 -160 272
WIRE -48 288 -48 272
WIRE 320 288 320 224
WIRE 960 288 960 224
WIRE 1600 288 1600 224
FLAG -160 288 0
FLAG -48 288 0
FLAG -32 32 0
FLAG -320 288 0
FLAG 80 64 +Vcc
FLAG -160 192 +Vcc
FLAG 80 96 -Vcc
FLAG -48 192 -Vcc
FLAG 608 32 0
FLAG 320 288 0
FLAG 720 64 +Vcc
FLAG 720 96 -Vcc
FLAG 1248 32 0
FLAG 960 288 0
FLAG 1360 64 +Vcc
FLAG 1360 96 -Vcc
FLAG 1888 32 0
FLAG 1600 288 0
FLAG 2000 64 +Vcc
FLAG 2000 96 -Vcc
FLAG -528 112 Vin
IOPIN -528 112 In
FLAG -528 288 0
FLAG 2128 112 Vout
SYMBOL AutoGenerated\\TL082 48 96 R0
SYMATTR InstName U1
SYMBOL voltage -160 176 R0
WINDOW 123 0 0 Left 0
WINDOW 39 0 0 Left 0
SYMATTR InstName V1
SYMATTR Value +15
SYMBOL voltage -48 176 R0
WINDOW 123 0 0 Left 0
WINDOW 39 0 0 Left 0
SYMATTR InstName V2
SYMATTR Value -15
SYMBOL res -352 96 R90
WINDOW 0 0 56 VBottom 2
WINDOW 3 32 56 VTop 2
SYMATTR InstName R1
SYMATTR Value 1k
SYMBOL res -176 96 R90
WINDOW 0 0 56 VBottom 2
WINDOW 3 32 56 VTop 2
SYMATTR InstName R2
SYMATTR Value 2.0806k
SYMBOL res -304 80 R180
WINDOW 0 36 76 Left 2
WINDOW 3 36 40 Left 2
SYMATTR InstName R3
SYMATTR Value 1k
SYMBOL cap -336 160 R0
SYMATTR InstName C1
SYMATTR Value 46.708n
SYMBOL cap -160 0 R0
SYMATTR InstName C2
SYMATTR Value 100p
SYMBOL AutoGenerated\\TL082 688 96 R0
SYMATTR InstName U2
SYMBOL res 288 96 R90
WINDOW 0 0 56 VBottom 2
WINDOW 3 32 56 VTop 2
SYMATTR InstName R4
SYMATTR Value 1k
SYMBOL res 464 96 R90
WINDOW 0 0 56 VBottom 2
WINDOW 3 32 56 VTop 2
SYMATTR InstName R5
SYMATTR Value 9.2467k
SYMBOL res 336 80 R180
WINDOW 0 36 76 Left 2
WINDOW 3 36 40 Left 2
SYMATTR InstName R6
SYMATTR Value 1k
SYMBOL cap 304 160 R0
SYMATTR InstName C3
SYMATTR Value 13.913n
SYMBOL cap 480 0 R0
SYMATTR InstName C4
SYMATTR Value 100p
SYMBOL AutoGenerated\\TL082 1328 96 R0
SYMATTR InstName U3
SYMBOL res 928 96 R90
WINDOW 0 0 56 VBottom 2
WINDOW 3 32 56 VTop 2
SYMATTR InstName R7
SYMATTR Value 1k
SYMBOL res 1104 96 R90
WINDOW 0 0 56 VBottom 2
WINDOW 3 32 56 VTop 2
SYMATTR InstName R8
SYMATTR Value 25.462k
SYMBOL res 976 80 R180
WINDOW 0 36 76 Left 2
WINDOW 3 36 40 Left 2
SYMATTR InstName R9
SYMATTR Value 1k
SYMBOL cap 944 160 R0
SYMATTR InstName C5
SYMATTR Value 8.7687n
SYMBOL cap 1120 0 R0
SYMATTR InstName C6
SYMATTR Value 100p
SYMBOL AutoGenerated\\TL082 1968 96 R0
SYMATTR InstName U4
SYMBOL res 1568 96 R90
WINDOW 0 0 56 VBottom 2
WINDOW 3 32 56 VTop 2
SYMATTR InstName R10
SYMATTR Value 1k
SYMBOL res 1744 96 R90
WINDOW 0 0 56 VBottom 2
WINDOW 3 32 56 VTop 2
SYMATTR InstName R11
SYMATTR Value 59.900k
SYMBOL res 1616 80 R180
WINDOW 0 36 76 Left 2
WINDOW 3 36 40 Left 2
SYMATTR InstName R12
SYMATTR Value 1k
SYMBOL cap 1584 160 R0
SYMATTR InstName C7
SYMATTR Value 7.1039n
SYMBOL cap 1760 0 R0
SYMATTR InstName C8
SYMATTR Value 100p
SYMBOL voltage -528 128 R0
WINDOW 123 24 124 Left 2
WINDOW 39 0 0 Left 0
SYMATTR InstName V3
SYMATTR Value ""
SYMATTR Value2 AC 1
TEXT -622 312 Left 2 !.ac dec 1000 10k 100k
